@<TRIPOS>MOLECULE
*****
 21 20 0 0 0
SMALL
GASTEIGER

@<TRIPOS>ATOM
      1 N          -0.9899    1.9061   -0.2552 N.3     1  UNL1        0.0729
      2 S           0.4697    2.6474   -0.9488 S.O2    1  UNL1        0.1407
      3 S          -2.4294    2.9251   -0.4852 S.O2    1  UNL1        0.1407
      4 O          -2.2518    3.6170   -1.8463 O.2     1  UNL1       -0.1492
      5 O          -2.2612    4.0899    0.5033 O.2     1  UNL1       -0.1492
      6 O           0.2651    2.5790   -2.4701 O.2     1  UNL1       -0.1492
      7 O           0.3729    4.1555   -0.6669 O.2     1  UNL1       -0.1492
      8 C           2.0676    1.9247   -0.4509 C.3     1  UNL1        0.4743
      9 C          -4.0425    2.0768   -0.3587 C.3     1  UNL1        0.4743
     10 C          -4.6687    2.2499    1.0256 C.3     1  UNL1        0.4783
     11 C           2.3809    2.2244    1.0153 C.3     1  UNL1        0.4783
     12 F          -3.8251    1.7418    1.9974 F       1  UNL1       -0.1635
     13 F          -5.8717    1.5690    1.0771 F       1  UNL1       -0.1635
     14 F          -4.9062    3.5887    1.2818 F       1  UNL1       -0.1635
     15 F          -3.8507    0.7299   -0.6095 F       1  UNL1       -0.1705
     16 F          -4.8974    2.5877   -1.3190 F       1  UNL1       -0.1705
     17 F           2.0135    0.5558   -0.6423 F       1  UNL1       -0.1705
     18 F           3.0655    2.4470   -1.2543 F       1  UNL1       -0.1705
     19 F           1.3929    1.7022    1.8309 F       1  UNL1       -0.1635
     20 F           3.5920    1.6496    1.3563 F       1  UNL1       -0.1635
     21 F           2.4638    3.5902    1.2193 F       1  UNL1       -0.1635
@<TRIPOS>BOND
     1     1     2    1
     2     1     3    1
     3     3     4    2
     4     3     5    2
     5     2     6    2
     6     2     7    2
     7     2     8    1
     8     3     9    1
     9     9    10    1
    10     8    11    1
    11    10    12    1
    12    10    13    1
    13    10    14    1
    14     9    15    1
    15     9    16    1
    16     8    17    1
    17     8    18    1
    18    11    19    1
    19    11    20    1
    20    11    21    1
