@<TRIPOS>MOLECULE
*****
 17 16 0 0 0
SMALL
GASTEIGER

@<TRIPOS>ATOM
      1 C          -0.9881    1.2773   -0.7118 C.3     1  UNL1        0.4585
      2 C           0.2205    1.2740    0.2469 C.3     1  UNL1        0.4039
      3 C           1.5759    1.2695   -0.5073 C.3     1  UNL1        0.4104
      4 C           2.7838    1.2686    0.4448 C.3     1  UNL1        0.4604
      5 F           0.1404    0.1490    1.0526 F       1  UNL1       -0.1899
      6 F           0.1481    2.4010    1.0505 F       1  UNL1       -0.1899
      7 F           1.6581    0.1432   -1.3099 F       1  UNL1       -0.1888
      8 F           1.6632    2.3921   -1.3145 F       1  UNL1       -0.1888
      9 F           2.7713    0.1434    1.2499 F       1  UNL1       -0.1648
     10 F           2.7771    2.3978    1.2444 F       1  UNL1       -0.1648
     11 F           3.9517    1.2639   -0.2968 F       1  UNL1       -0.1648
     12 F          -0.9616    0.1531   -1.5188 F       1  UNL1       -0.1718
     13 F          -0.9604    2.4054   -1.5132 F       1  UNL1       -0.1718
     14 S          -2.5542    1.2745    0.2297 S.3     1  UNL1        0.1820
     15 O          -3.5355    2.3415   -0.2785 O.2     1  UNL1       -0.1389
     16 O          -3.3661   -0.0087   -0.0028 O.2     1  UNL1       -0.1389
     17 O          -2.5281    1.4762    1.9347 O.3     1  UNL1       -0.0419
@<TRIPOS>BOND
     1     1     2    1
     2     2     3    1
     3     3     4    1
     4     2     5    1
     5     2     6    1
     6     3     7    1
     7     3     8    1
     8     4     9    1
     9     4    10    1
    10     4    11    1
    11     1    12    1
    12     1    13    1
    13     1    14    1
    14    14    15    2
    15    14    16    2
    16    14    17    1
