@<TRIPOS>MOLECULE
*****
 8 7 0 0 0
SMALL
GASTEIGER

@<TRIPOS>ATOM
      1 C          -2.6153    1.2587   -0.0554 C.3     1  UNL1        0.5487
      2 S          -0.8415    0.8749    0.0336 S.3     1  UNL1        0.2092
      3 O          -0.1310    1.6685    1.1406 O.2     1  UNL1       -0.1362
      4 O          -0.5815   -0.5698    0.4852 O.2     1  UNL1       -0.1362
      5 O           0.1339    1.0869   -1.3628 O.3     1  UNL1       -0.0397
      6 F          -3.0423    1.1501   -1.3648 F       1  UNL1       -0.1486
      7 F          -2.8364    2.5465    0.3938 F       1  UNL1       -0.1486
      8 F          -3.3239    0.3692    0.7298 F       1  UNL1       -0.1486
@<TRIPOS>BOND
     1     1     2    1
     2     2     3    2
     3     2     4    2
     4     2     5    1
     5     1     6    1
     6     1     7    1
     7     1     8    1
