@<TRIPOS>MOLECULE
*****
 14 13 0 0 0
SMALL
GASTEIGER

@<TRIPOS>ATOM
      1 C          -0.2991    2.1375   -0.3963 C.3     1  UNL1        0.5402
      2 F           0.1778    2.3690   -1.6720 F       1  UNL1       -0.1491
      3 F          -1.2294    3.1070   -0.0739 F       1  UNL1       -0.1491
      4 F          -0.8986    0.8933   -0.3485 F       1  UNL1       -0.1491
      5 S           1.0790    2.1964    0.7865 S.O2    1  UNL1        0.1631
      6 N           2.6824    1.8020    0.1703 N.am    1  UNL1       -0.0482
      7 O           0.8820    1.2136    1.9502 O.2     1  UNL1       -0.1449
      8 O           1.2073    3.5355    1.5300 O.2     1  UNL1       -0.1449
      9 C           3.7151    2.6760    0.0714 C.2     1  UNL1        0.3574
     10 O           3.5899    3.8376    0.4281 O.2     1  UNL1       -0.2625
     11 C           5.0328    2.2187   -0.4815 C.3     1  UNL1        0.4727
     12 F           4.9746    0.8851   -0.8473 F       1  UNL1       -0.1620
     13 F           5.3538    2.9751   -1.5935 F       1  UNL1       -0.1620
     14 F           6.0166    2.3789    0.4766 F       1  UNL1       -0.1620
@<TRIPOS>BOND
     1     1     2    1
     2     1     3    1
     3     1     4    1
     4     1     5    1
     5     5     6    1
     6     5     7    2
     7     5     8    2
     8     6     9   am
     9     9    10    2
    10     9    11    1
    11    11    12    1
    12    11    13    1
    13    11    14    1
