@<TRIPOS>MOLECULE
*****
 9 8 0 0 0
SMALL
GASTEIGER

@<TRIPOS>ATOM
      1 N          -0.5182    0.8265   -0.4111 N.3     1  UNL1        0.1233
      2 S           0.9010    0.8206    0.6388 S.O2    1  UNL1        0.2271
      3 S          -1.9351    0.8349    0.6421 S.O2    1  UNL1        0.2271
      4 F          -3.5686    0.8417    0.1354 F       1  UNL1       -0.0436
      5 F           2.5334    0.8111    0.1284 F       1  UNL1       -0.0436
      6 O           1.1766   -0.3763   -0.2836 O.2     1  UNL1       -0.1225
      7 O           1.1892    2.0117   -0.2871 O.2     1  UNL1       -0.1225
      8 O          -2.2247   -0.3593   -0.2794 O.2     1  UNL1       -0.1225
      9 O          -2.2135    2.0287   -0.2834 O.2     1  UNL1       -0.1225
@<TRIPOS>BOND
     1     1     2    1
     2     1     3    1
     3     3     4    1
     4     2     5    1
     5     2     6    2
     6     2     7    2
     7     3     8    2
     8     3     9    2
