@<TRIPOS>MOLECULE
*****
 10 9 0 0 0
SMALL
GASTEIGER

@<TRIPOS>ATOM
      1 C          -2.5790    0.4608    0.0694 C.3     1  UNL1        0.5408
      2 F          -3.0575    1.5369   -0.6801 F       1  UNL1       -0.1490
      3 F          -3.2779    0.5056    1.2611 F       1  UNL1       -0.1490
      4 F          -3.0470   -0.6871   -0.5771 F       1  UNL1       -0.1490
      5 S          -0.6988    0.4994    0.5589 S.O2    1  UNL1        0.1695
      6 O          -0.8029    1.7180   -0.3719 O.2     1  UNL1       -0.1443
      7 O          -0.7809   -0.6842   -0.4151 O.2     1  UNL1       -0.1443
      8 N           0.7573    0.4934   -0.4296 N.pl3   1  UNL1       -0.0149
      9 C           2.0378    0.6244    0.0791 C.1     1  UNL1        0.2113
     10 N           3.1101    0.7329    0.5052 N.1     1  UNL1       -0.1709
@<TRIPOS>BOND
     1     1     2    1
     2     1     3    1
     3     1     4    1
     4     1     5    1
     5     5     6    2
     6     5     7    2
     7     5     8    1
     8     8     9    1
     9     9    10    3
